tests/data/state_estimation/ill-conditioned-system/grid5-with-capacitance/input.json
{
  "version": "1.0",
  "type": "input",
  "is_batch": false,
  "attributes": {},
  "data": {
    "node": [
      {
        "id": 0,
        "u_rated": 10000
      },
      {
        "id": 1,
        "u_rated": 10000
      },
      {
        "id": 2,
        "u_rated": 10000
      },
      {
        "id": 3,
        "u_rated": 10000
      },
      {
        "id": 4,
        "u_rated": 10000
      },
      {
        "id": 5,
        "u_rated": 10000
      },
      {
        "id": 6,
        "u_rated": 10000
      }
    ],
    "line": [
      {
        "id": 7,
        "from_node": 0,
        "to_node": 1,
        "from_status": 1,
        "to_status": 1,
        "r1": 0.1,
        "x1": 0.1,
        "c1": 1e-06,
        "tan1": 0.005,
        "r0": 0.15,
        "x0": 0.15,
        "c0": 5e-07,
        "tan0": 0.005
      },
      {
        "id": 8,
        "from_node": 1,
        "to_node": 2,
        "from_status": 1,
        "to_status": 1,
        "r1": 0.1,
        "x1": 0.1,
        "c1": 1e-06,
        "tan1": 0.005,
        "r0": 0.15,
        "x0": 0.15,
        "c0": 5e-07,
        "tan0": 0.005
      },
      {
        "id": 9,
        "from_node": 1,
        "to_node": 3,
        "from_status": 1,
        "to_status": 1,
        "r1": 0.1,
        "x1": 0.1,
        "c1": 1e-06,
        "tan1": 0.005,
        "r0": 0.15,
        "x0": 0.15,
        "c0": 5e-07,
        "tan0": 0.005
      },
      {
        "id": 10,
        "from_node": 3,
        "to_node": 4,
        "from_status": 1,
        "to_status": 1,
        "r1": 0.1,
        "x1": 0.1,
        "c1": 1e-06,
        "tan1": 0.005,
        "r0": 0.15,
        "x0": 0.15,
        "c0": 5e-07,
        "tan0": 0.005
      },
      {
        "id": 11,
        "from_node": 3,
        "to_node": 5,
        "from_status": 1,
        "to_status": 1,
        "r1": 0.1,
        "x1": 0.1,
        "c1": 1e-06,
        "tan1": 0.005,
        "r0": 0.15,
        "x0": 0.15,
        "c0": 5e-07,
        "tan0": 0.005
      },
      {
        "id": 12,
        "from_node": 3,
        "to_node": 6,
        "from_status": 1,
        "to_status": 1,
        "r1": 0.1,
        "x1": 0.1,
        "c1": 1e-06,
        "tan1": 0.005,
        "r0": 0.15,
        "x0": 0.15,
        "c0": 5e-07,
        "tan0": 0.005
      }
    ],
    "source": [
      {
        "id": 13,
        "node": 0,
        "status": 1,
        "u_ref": 1,
        "sk": 200000000
      }
    ],
    "sym_load": [
      {
        "id": 14,
        "node": 1,
        "status": 1,
        "type": 0,
        "p_specified": 1500000,
        "q_specified": 900000
      },
      {
        "id": 15,
        "node": 2,
        "status": 1,
        "type": 0,
        "p_specified": 1500000,
        "q_specified": 900000
      },
      {
        "id": 16,
        "node": 3,
        "status": 1,
        "type": 0,
        "p_specified": 1500000,
        "q_specified": 900000
      },
      {
        "id": 17,
        "node": 4,
        "status": 1,
        "type": 0,
        "p_specified": 1500000,
        "q_specified": 900000
      },
      {
        "id": 18,
        "node": 5,
        "status": 1,
        "type": 0,
        "p_specified": 1500000,
        "q_specified": 900000
      }
    ],
    "sym_power_sensor": [
      {
        "id": 20,
        "measured_object": 13,
        "measured_terminal_type": 2,
        "power_sigma": 88270.36009440178,
        "p_measured": 7623254.592632667,
        "q_measured": 4450006.081777699
      },
      {
        "id": 21,
        "measured_object": 14,
        "measured_terminal_type": 4,
        "power_sigma": 88270.36009440178,
        "p_measured": 1500000,
        "q_measured": 899999.9999999999
      },
      {
        "id": 22,
        "measured_object": 15,
        "measured_terminal_type": 4,
        "power_sigma": 88270.36009440178,
        "p_measured": 1500000,
        "q_measured": 899999.9999999999
      },
      {
        "id": 23,
        "measured_object": 10,
        "measured_terminal_type": 0,
        "power_sigma": 88270.36009440178,
        "p_measured": 1503503.111873887,
        "q_measured": 874917.2976528193
      },
      {
        "id": 24,
        "measured_object": 18,
        "measured_terminal_type": 4,
        "power_sigma": 88270.36009440178,
        "p_measured": 1500000,
        "q_measured": 899999.9999999999
      }
    ],
    "sym_voltage_sensor": [
      {
        "id": 19,
        "measured_object": 0,
        "u_sigma": 10,
        "u_measured": 9726.645995354807
      }
    ]
  }
}
