tests/data/state_estimation/ill-conditioned-system/grid5-with-capacitance/asym_output.json
{
  "version": "1.0",
  "type": "asym_output",
  "is_batch": false,
  "attributes": {},
  "data": {
    "node": [
      {
        "id": 0,
        "energized": 1,
        "u_pu": [
          0.9726645995354783,
          0.9726645995354793,
          0.9726645995354811
        ],
        "u": [
          5615.681683730279,
          5615.681683730286,
          5615.681683730296
        ],
        "u_angle": [
          -0.03672507209736713,
          -2.131120174490559,
          2.057670030295831
        ],
        "p": [
          2541084.864211002,
          2541084.864210833,
          2541084.864210915
        ],
        "q": [
          1483335.360592719,
          1483335.360592685,
          1483335.360592571
        ]
      },
      {
        "id": 1,
        "energized": 1,
        "u_pu": [
          0.9602423243206472,
          0.960242324320649,
          0.9602423243206509
        ],
        "u": [
          5543.961644337975,
          5543.961644337986,
          5543.961644337997
        ],
        "u_angle": [
          -0.04010659301980082,
          -2.134501695412993,
          2.054288509373397
        ],
        "p": [
          -499999.9999999899,
          -500000.000000044,
          -499999.9999999983
        ],
        "q": [
          -300000.0000000385,
          -300000.000000245,
          -300000.0000000871
        ]
      },
      {
        "id": 2,
        "energized": 1,
        "u_pu": [
          0.9577512091046109,
          0.957751209104613,
          0.9577512091046149
        ],
        "u": [
          5529.579183932367,
          5529.579183932378,
          5529.579183932389
        ],
        "u_angle": [
          -0.04077474424378581,
          -2.135169846636978,
          2.053620358149411
        ],
        "p": [
          -500000.0000000091,
          -499999.9999999769,
          -500000.0000000682
        ],
        "q": [
          -300000.0000000058,
          -300000.0000000084,
          -299999.9999999369
        ]
      },
      {
        "id": 3,
        "energized": 1,
        "u_pu": [
          0.9527733391101315,
          0.9527733391101343,
          0.9527733391101366
        ],
        "u": [
          5500.83943811933,
          5500.839438119347,
          5500.839438119359
        ],
        "u_angle": [
          -0.04218351865378789,
          -2.13657862104698,
          2.05221158373941
        ],
        "p": [
          -499999.9999999021,
          -500000.0000000016,
          -500000.0000000047
        ],
        "q": [
          -300000.0000000516,
          -299999.9999998853,
          -299999.9999999652
        ]
      },
      {
        "id": 4,
        "energized": 1,
        "u_pu": [
          0.9502623535763265,
          0.9502623535763294,
          0.9502623535763318
        ],
        "u": [
          5486.342256380594,
          5486.342256380611,
          5486.342256380625
        ],
        "u_angle": [
          -0.04286196537376114,
          -2.137257067766953,
          2.051533137019437
        ],
        "p": [
          -499999.9999999957,
          -500000.0000000055,
          -499999.9999999637
        ],
        "q": [
          -299999.999999998,
          -300000.00000007,
          -299999.9999999836
        ]
      },
      {
        "id": 5,
        "energized": 1,
        "u_pu": [
          0.9502623535763265,
          0.9502623535763294,
          0.9502623535763318
        ],
        "u": [
          5486.342256380594,
          5486.342256380611,
          5486.342256380625
        ],
        "u_angle": [
          -0.04286196537376114,
          -2.137257067766953,
          2.051533137019437
        ],
        "p": [
          -499999.9999999957,
          -500000.0000000055,
          -499999.9999999637
        ],
        "q": [
          -299999.999999998,
          -300000.00000007,
          -299999.9999999836
        ]
      },
      {
        "id": 6,
        "energized": 1,
        "u_pu": [
          0.95278823052212,
          0.952788230522123,
          0.9527882305221255
        ],
        "u": [
          5500.925413726532,
          5500.925413726549,
          5500.925413726563
        ],
        "u_angle": [
          -0.04219930540360874,
          -2.1365944077968,
          2.052195796989589
        ],
        "p": [
          -3.759756630622919e-08,
          -6.130199561547197e-10,
          4.179507586572451e-09
        ],
        "q": [
          -3.455113276105434e-08,
          -8.51547884538692e-08,
          -8.000727876856735e-09
        ]
      }
    ],
    "line": [
      {
        "id": 7,
        "energized": 1,
        "p_from": [
          2541084.864211002,
          2541084.864210833,
          2541084.864210915
        ],
        "q_from": [
          1483335.360592719,
          1483335.360592685,
          1483335.360592571
        ],
        "i_from": [
          523.9515881045714,
          523.9515881045421,
          523.9515881045432
        ],
        "s_from": [
          2942345.336480234,
          2942345.336480071,
          2942345.336480083
        ],
        "p_to": [
          -2513537.15069113,
          -2513537.150690961,
          -2513537.150691026
        ],
        "q_to": [
          -1465618.122210566,
          -1465618.122210542,
          -1465618.122210404
        ],
        "i_to": [
          524.8273884851878,
          524.8273884851584,
          524.8273884851549
        ],
        "s_to": [
          2909622.911659948,
          2909622.911659789,
          2909622.911659776
        ]
      },
      {
        "id": 8,
        "energized": 1,
        "p_from": [
          501150.8576588897,
          501150.8576588416,
          501150.8576589064
        ],
        "q_from": [
          291471.8753018776,
          291471.875301849,
          291471.8753017986
        ],
        "i_from": [
          104.5729190869774,
          104.5729190869672,
          104.5729190869725
        ],
        "s_from": [
          579748.2524546615,
          579748.2524546057,
          579748.2524546364
        ],
        "p_to": [
          -500000.0000000091,
          -499999.9999999769,
          -500000.0000000682
        ],
        "q_to": [
          -300000.0000000058,
          -300000.0000000084,
          -299999.9999999369
        ],
        "i_to": [
          105.4501925171586,
          105.4501925171537,
          105.4501925171609
        ],
        "s_to": [
          583095.189484541,
          583095.1894845145,
          583095.1894845561
        ]
      },
      {
        "id": 9,
        "energized": 1,
        "p_from": [
          1512386.29303223,
          1512386.293032029,
          1512386.293032001
        ],
        "q_from": [
          874146.2469085958,
          874146.2469084773,
          874146.2469084344
        ],
        "i_from": [
          315.088448919026,
          315.0884489189833,
          315.0884489189744
        ],
        "s_from": [
          1746838.275381025,
          1746838.275380792,
          1746838.275380746
        ],
        "p_to": [
          -1502383.014419183,
          -1502383.014419024,
          -1502383.014419025
        ],
        "q_to": [
          -873771.905633801,
          -873771.9056337178,
          -873771.9056336614
        ],
        "i_to": [
          315.9511536429162,
          315.9511536428825,
          315.9511536428769
        ],
        "s_to": [
          1737996.566478252,
          1737996.566478073,
          1737996.566478046
        ]
      },
      {
        "id": 10,
        "energized": 1,
        "p_from": [
          501167.7039579991,
          501167.7039579399,
          501167.7039579418
        ],
        "q_from": [
          291639.0992176569,
          291639.0992176839,
          291639.0992176362
        ],
        "i_from": [
          105.4106214482275,
          105.4106214482203,
          105.410621448216
        ],
        "s_from": [
          579846.903659077,
          579846.9036590395,
          579846.903659017
        ],
        "p_to": [
          -499999.9999999957,
          -500000.0000000055,
          -499999.9999999637
        ],
        "q_to": [
          -299999.999999998,
          -300000.00000007,
          -299999.9999999836
        ],
        "i_to": [
          106.2812274984099,
          106.2812274984179,
          106.2812274984029
        ],
        "s_to": [
          583095.1894845252,
          583095.1894845708,
          583095.1894844904
        ]
      },
      {
        "id": 11,
        "energized": 1,
        "p_from": [
          501167.7039579991,
          501167.7039579399,
          501167.7039579418
        ],
        "q_from": [
          291639.0992176569,
          291639.0992176839,
          291639.0992176362
        ],
        "i_from": [
          105.4106214482275,
          105.4106214482203,
          105.410621448216
        ],
        "s_from": [
          579846.903659077,
          579846.9036590395,
          579846.903659017
        ],
        "p_to": [
          -499999.9999999957,
          -500000.0000000055,
          -499999.9999999637
        ],
        "q_to": [
          -299999.999999998,
          -300000.00000007,
          -299999.9999999836
        ],
        "i_to": [
          106.2812274984099,
          106.2812274984179,
          106.2812274984029
        ],
        "s_to": [
          583095.1894845252,
          583095.1894845708,
          583095.1894844904
        ]
      },
      {
        "id": 12,
        "energized": 1,
        "p_from": [
          47.60650326719226,
          47.60650316120984,
          47.60650316895364
        ],
        "q_from": [
          -9506.292801509433,
          -9506.29280150464,
          -9506.29280155924
        ],
        "i_from": [
          1.728174783477169,
          1.728174783476196,
          1.728174783486125
        ],
        "s_from": [
          9506.412004914546,
          9506.412004909222,
          9506.41200496386
        ],
        "p_to": [
          -3.759756630622919e-08,
          -6.130199561547197e-10,
          4.179507586572451e-09
        ],
        "q_to": [
          -3.455113276105434e-08,
          -8.51547884538692e-08,
          -8.000727876856735e-09
        ],
        "i_to": [
          9.282491429618473e-12,
          1.548048529151268e-11,
          1.640928159047308e-12
        ],
        "s_to": [
          5.106229300788698e-08,
          8.515699495690214e-08,
          9.02662341220288e-09
        ]
      }
    ],
    "source": [
      {
        "id": 13,
        "energized": 1,
        "p": [
          2541084.864211002,
          2541084.864210833,
          2541084.864210915
        ],
        "q": [
          1483335.360592719,
          1483335.360592685,
          1483335.360592571
        ],
        "i": [
          523.9515881045714,
          523.9515881045419,
          523.9515881045432
        ],
        "s": [
          2942345.336480234,
          2942345.33648007,
          2942345.336480083
        ],
        "pf": [
          0.8636256365647283,
          0.8636256365647189,
          0.8636256365647431
        ]
      }
    ],
    "sym_load": [
      {
        "id": 14,
        "energized": 1,
        "p": [
          500000,
          500000,
          500000
        ],
        "q": [
          299999.9999999999,
          299999.9999999999,
          299999.9999999999
        ],
        "i": [
          105.1766276341473,
          105.1766276341471,
          105.1766276341469
        ],
        "s": [
          583095.1894845299,
          583095.1894845299,
          583095.1894845299
        ],
        "pf": [
          0.8574929257125444,
          0.8574929257125444,
          0.8574929257125444
        ]
      },
      {
        "id": 15,
        "energized": 1,
        "p": [
          500000,
          500000,
          500000
        ],
        "q": [
          299999.9999999999,
          299999.9999999999,
          299999.9999999999
        ],
        "i": [
          105.4501925171567,
          105.4501925171564,
          105.4501925171562
        ],
        "s": [
          583095.1894845299,
          583095.1894845299,
          583095.1894845299
        ],
        "pf": [
          0.8574929257125444,
          0.8574929257125444,
          0.8574929257125444
        ]
      },
      {
        "id": 16,
        "energized": 1,
        "p": [
          500000,
          500000,
          500000
        ],
        "q": [
          299999.9999999999,
          299999.9999999999,
          299999.9999999999
        ],
        "i": [
          106.0011287447945,
          106.0011287447942,
          106.0011287447939
        ],
        "s": [
          583095.1894845299,
          583095.1894845299,
          583095.1894845299
        ],
        "pf": [
          0.8574929257125444,
          0.8574929257125444,
          0.8574929257125444
        ]
      },
      {
        "id": 17,
        "energized": 1,
        "p": [
          500000,
          500000,
          500000
        ],
        "q": [
          299999.9999999999,
          299999.9999999999,
          299999.9999999999
        ],
        "i": [
          106.2812274984108,
          106.2812274984104,
          106.2812274984102
        ],
        "s": [
          583095.1894845299,
          583095.1894845299,
          583095.1894845299
        ],
        "pf": [
          0.8574929257125444,
          0.8574929257125444,
          0.8574929257125444
        ]
      },
      {
        "id": 18,
        "energized": 1,
        "p": [
          500000,
          500000,
          500000
        ],
        "q": [
          299999.9999999999,
          299999.9999999999,
          299999.9999999999
        ],
        "i": [
          106.2812274984108,
          106.2812274984104,
          106.2812274984102
        ],
        "s": [
          583095.1894845299,
          583095.1894845299,
          583095.1894845299
        ],
        "pf": [
          0.8574929257125444,
          0.8574929257125444,
          0.8574929257125444
        ]
      }
    ]
  }
}
