tests/data/state_estimation/ill-conditioned-system/grid5-with-capacitance/sym_output.json
{
  "version": "1.0",
  "type": "sym_output",
  "is_batch": false,
  "attributes": {},
  "data": {
    "node": [
      {
        "id": 0,
        "energized": 1,
        "u_pu": 0.9726645995354807,
        "u": 9726.645995354807,
        "u_angle": -0.0367250720973653,
        "p": 7623254.592632666,
        "q": 4450006.081777698
      },
      {
        "id": 1,
        "energized": 1,
        "u_pu": 0.9602423243206505,
        "u": 9602.423243206506,
        "u_angle": -0.040106593019799,
        "p": -1499999.999999978,
        "q": -900000.0000002306
      },
      {
        "id": 2,
        "energized": 1,
        "u_pu": 0.9577512091046144,
        "u": 9577.512091046145,
        "u_angle": -0.04077474424378402,
        "p": -1499999.999999918,
        "q": -899999.9999999192
      },
      {
        "id": 3,
        "energized": 1,
        "u_pu": 0.9527733391101356,
        "u": 9527.733391101356,
        "u_angle": -0.04218351865378603,
        "p": -1499999.999999871,
        "q": -900000.0000001004
      },
      {
        "id": 4,
        "energized": 1,
        "u_pu": 0.9502623535763308,
        "u": 9502.623535763309,
        "u_angle": -0.04286196537375931,
        "p": -1499999.999999936,
        "q": -899999.999999949
      },
      {
        "id": 5,
        "energized": 1,
        "u_pu": 0.9502623535763308,
        "u": 9502.623535763309,
        "u_angle": -0.04286196537375931,
        "p": -1499999.999999936,
        "q": -899999.999999949
      },
      {
        "id": 6,
        "energized": 1,
        "u_pu": 0.9527882305221245,
        "u": 9527.882305221245,
        "u_angle": -0.04219930540360684,
        "p": 5.411152430046291e-08,
        "q": -2.284825158881043e-09
      }
    ],
    "line": [
      {
        "id": 7,
        "energized": 1,
        "p_from": 7623254.592632666,
        "q_from": 4450006.081777698,
        "i_from": 523.951588104539,
        "s_from": 8827036.009440176,
        "p_to": -7540611.452073002,
        "q_to": -4396854.366631142,
        "i_to": 524.8273884851491,
        "s_to": 8728868.734979225
      },
      {
        "id": 8,
        "energized": 1,
        "p_from": 1503452.572976561,
        "q_from": 874415.6259055883,
        "i_from": 104.5729190869701,
        "s_from": 1739244.757363869,
        "p_to": -1499999.999999918,
        "q_to": -899999.9999999192,
        "i_to": 105.4501925171495,
        "s_to": 1749285.568453478
      },
      {
        "id": 9,
        "energized": 1,
        "p_from": 4537158.879096254,
        "q_from": 2622438.740725549,
        "i_from": 315.088448918995,
        "s_from": 5240514.826142578,
        "p_to": -4507149.043257174,
        "q_to": -2621315.716901168,
        "i_to": 315.951153642888,
        "s_to": 5213989.699434316
      },
      {
        "id": 10,
        "energized": 1,
        "p_from": 1503503.111873887,
        "q_from": 874917.2976528193,
        "i_from": 105.4106214482166,
        "s_from": 1739540.71097706,
        "p_to": -1499999.999999936,
        "q_to": -899999.999999949,
        "i_to": 106.2812274984053,
        "s_to": 1749285.568453509
      },
      {
        "id": 11,
        "energized": 1,
        "p_from": 1503503.111873887,
        "q_from": 874917.2976528193,
        "i_from": 105.4106214482166,
        "s_from": 1739540.71097706,
        "p_to": -1499999.999999936,
        "q_to": -899999.999999949,
        "i_to": 106.2812274984053,
        "s_to": 1749285.568453509
      },
      {
        "id": 12,
        "energized": 1,
        "p_from": 142.8195096324467,
        "q_from": -28518.8784046839,
        "i_from": 1.728174783486539,
        "s_from": 28519.23601489839,
        "p_to": 5.411152430046291e-08,
        "q_to": -2.284825158881043e-09,
        "i_to": 3.281856318094616e-12,
        "s_to": 5.415974047321722e-08
      }
    ],
    "source": [
      {
        "id": 13,
        "energized": 1,
        "p": 7623254.592632667,
        "q": 4450006.081777699,
        "i": 523.9515881045392,
        "s": 8827036.009440178,
        "pf": 0.8636256365647412
      }
    ],
    "sym_load": [
      {
        "id": 14,
        "energized": 1,
        "p": 1500000,
        "q": 899999.9999999999,
        "i": 105.1766276341469,
        "s": 1749285.56845359,
        "pf": 0.8574929257125443
      },
      {
        "id": 15,
        "energized": 1,
        "p": 1500000,
        "q": 899999.9999999999,
        "i": 105.4501925171563,
        "s": 1749285.56845359,
        "pf": 0.8574929257125443
      },
      {
        "id": 16,
        "energized": 1,
        "p": 1500000,
        "q": 899999.9999999999,
        "i": 106.001128744794,
        "s": 1749285.56845359,
        "pf": 0.8574929257125443
      },
      {
        "id": 17,
        "energized": 1,
        "p": 1500000,
        "q": 899999.9999999999,
        "i": 106.2812274984103,
        "s": 1749285.56845359,
        "pf": 0.8574929257125443
      },
      {
        "id": 18,
        "energized": 1,
        "p": 1500000,
        "q": 899999.9999999999,
        "i": 106.2812274984103,
        "s": 1749285.56845359,
        "pf": 0.8574929257125443
      }
    ]
  }
}
